FoamFile
{
    version     2.0;
    format      ascii;
    class       dictionary;
    object      controlDict;
}

application     buoyantSimpleFoam;

startFrom       startTime;

startTime       0;

stopAt          endTime;

endTime         100;

deltaT          1;

writeControl    timeStep;

writeInterval   10;

writeFormat     ascii;

writePrecision  7;

writeCompression on;

timeFormat      general;

timePrecision   6;

runTimeModifiable false;

libs ("libpreciceAdapterFunctionObject.so");
functions
{
    preCICE_Adapter
    {
        type preciceAdapterFunctionObject;
        errors strict; // Available since OpenFOAM v2012
    }
}
